Circuit: * C:\PP\Dydaktyka\MATERIALY\TC_MATERIALY\Microprocessor-system-examples-2022-23\FT\spice\timer555.asc

WARNING: Less than two connections to node N003.  This node is used by S:U1:1.
Direct Newton iteration for .op point succeeded.

Date: Thu May 30 18:33:00 2024
Total elapsed time: 0.178 seconds.

tnom = 27
temp = 27
method = modified trap
totiter = 66939
traniter = 66931
tranpoints = 14361
accept = 11164
rejected = 3197
matrix size = 14
fillins = 0
solver = Normal
Matrix Compiler1: 348 bytes object code size  0.1/0.0/[0.0]
Matrix Compiler2: 748 bytes object code size  0.1/0.1/[0.0]

