Circuit: * C:\PP\Dydaktyka\MATERIALY\TC_MATERIALY\Microprocessor-system-examples-2022-23\L01\spice\mosfet_logic.asc

Per .tran options, skipping operating point for transient analysis.

Date: Mon Feb 26 12:37:26 2024
Total elapsed time: 0.070 seconds.

tnom = 27
temp = 27
method = modified trap
totiter = 2775
traniter = 2775
tranpoints = 1226
accept = 1187
rejected = 39
matrix size = 12
fillins = 0
solver = Normal
Matrix Compiler1:      27 opcodes  0.1/[0.0]/0.0
Matrix Compiler2: 940 bytes object code size  0.3/0.1/[0.0]

